powerfactory/powerfactory-converter/src/test/resources/CapabilityCurve.dgs
$$General;ID(a:40);Descr(a:40);Val(a:40)
  1;Version;5.0


$$ChaRef;ID(a:40);loc_name(a:40);fold_id(p)
  2;fline;6
  3;ratfac;13


$$ChaVec;ID(a:40);loc_name(a:40);fold_id(p);scale(p);usage(i);approx(i);vector:SIZEROW(i);vector:0(r);vector:1(r);vector:2(r)
  4;vec_1;;;0;0;3;100;199,98;199,98
  5;vec_2;;;0;0;3;100;33598,7903225806;33598,7903225806


$$ElmLne;ID(a:40);loc_name(a:40);for_name(a:50);fold_id(p);typ_id(p);dline(r);fline(r);GPScoords:SIZEROW(i);GPScoords:SIZECOL(i);nlnum(i);inAir(i)
  6;lne_1_2_1;;8;27;52;1;0;0;1;0


$$ElmLod;ID(a:40);loc_name(a:40);for_name(a:50);fold_id(p);typ_id(p);mode_inp(a:3);slini(r);plini(r);qlini(r);coslini(r);pf_recap(i);scale0(r);i_scale(i);outserv(i);classif(a:20)
  7;lod_3_1;;8;28;PQ;55,9017;50;25;0,894427;0;1;0;0;


$$ElmNet;ID(a:40);loc_name(a:40);for_name(a:50);fold_id(p);frnom(r);pDiagram(p)
  8;1 aux_1;;;60;


$$ElmSym;ID(a:40);loc_name(a:40);for_name(a:50);fold_id(p);typ_id(p);cCategory(a);ngnum(i);i_mot(i);pgini(r);qgini(r);cosgini(r);usetp(r);pf_recap(i);q_min(r);q_max(r);outserv(i);av_mode(a);phtech(i);pQlimType(p)
  9;sym_1_1;;8;29;Others;1;0;50,47;0;1;1,06;0;0;0;0;constv;1;31


$$ElmTerm;ID(a:40);loc_name(a:40);for_name(a:50);fold_id(p);typ_id(p);systype(i);iUsage(i);uknom(r);unknom(r);iminus(i);outserv(i);GPSlat(r);GPSlon(r);vtarget(r);m:u(r);m:phiu(r)
  10;1 Bus 1-Slack;;8;;0;0;400;230,9401;0;0;0;0;1;1,05999994277954;0
  11;2 Bus 2;;8;;0;0;400;230,9401;0;0;0;0;1;1,04657487761001;-1,46124506647397
  12;3 Bus 2-Load;;8;;0;0;20;11,54701;0;0;0;0;1;1,04026508640743;-2,09383399110034


$$ElmTr2;ID(a:40);loc_name(a:40);fold_id(p);for_name(a:50);typ_id(p);ntnum(i);outserv(i);nntap(i);i_auto(i);ntrcn(i);usetp(r);usp_low(r);usp_up(r);t2ldc(i)
  13;trf_2_3_1;8;;30;1;0;0;0;1;1;0,9;1,1;0


$$ElmZone;ID(a:40);loc_name(a:40);for_name(a:50);fold_id(p);icolor(i);curscale(r)
  14;1_aux_1;;;1;1


$$StaCubic;ID(a:40);loc_name(a:40);for_name(a:50);fold_id(p);obj_bus(i);obj_id(p);it2p1(i);it2p2(i);it2p3(i)
  15;lne_1_2_1;;10;0;6;0;1;2
  16;sym_1_1;;10;0;9;0;1;2
  17;lne_1_2_1;;11;1;6;0;1;2
  18;trf_2_3_1;;11;0;13;0;1;2
  19;lod_3_1;;12;0;7;0;1;2
  20;trf_2_3_1;;12;1;13;0;1;2


$$StaSwitch;ID(a:40);loc_name(a:40);for_name(a:50);fold_id(p);on_off(i);typ_id(p);aUsage(a)
  21;Switch;;15;1;;cbk
  22;Switch;;16;1;;cbk
  23;Switch;;17;1;;cbk
  24;Switch;;18;1;;cbk
  25;Switch;;19;1;;cbk
  26;Switch;;20;1;;cbk


$$TypLne;ID(a:40);loc_name(a:40);for_name(a:50);fold_id(p);uline(r);sline(r);InomAir(r);cohl_(i);rline(r);xline(r);rline0(r);xline0(r);Ithr(r);tmax(r);rtemp(r);systp(i);nlnph(i);nneutral(i);frnom(r);mlei(a:2);bline(r);bline0(r)
  27;tlne_1_2_1;;8;400;7,216878;1;0;0,596307;1,820615;999999;999999;0;80;80;0;3;0;60;Cu;4,159616;0


$$TypLod;ID(a:40);loc_name(a:40);for_name(a:50);fold_id(p);systp(i);phtech(i);aP(r);bP(r);kpu0(r);kpu1(r);kpu(r);aQ(r);bQ(r);kqu0(r);kqu1(r);kqu(r)
  28;lodtyp_pq;;8;0;0;1;0;0;1;2;1;0;0;1;2


$$TypSym;ID(a:40);loc_name(a:40);for_name(a:50);fold_id(p);sgn(r);ugn(r);cosn(r);xd(r);xq(r);xdsss(r);rstr(r);xdsat(r);satur(i);nphase(i);nslty(i);x0sy(r);r0sy(r);x2sy(r);r2sy(r);iopt_data(i);xds(r);xqs(r);xl(r);xdss(r);xqss(r);xrlq(r);tds(r);tqs(r);tdss(r);tqss(r)
  29;tsym_1_1;;8;615;400;1;2;2;1;0;1,2;0;3;2;1;0;1;0;1;0,3;0,3;0,1;1;1;0;1;0;0,05;0,05


$$TypTr2;ID(a:40);loc_name(a:40);for_name(a:50);fold_id(p);nt2ph(i);strn(r);frnom(r);utrn_h(r);utrn_l(r);uktr(r);pcutr(r);uk0tr(r);ur0tr(r);tr2cn_h(a:2);tr2cn_l(a:2);nt2ag(r);curmg(r);pfe(r);zx0hl_n(r);itapch(i);tap_side(i);dutap(r);phitr(r);nntap0(i);ntpmn(i);ntpmx(i);manuf(a:20)
  30;ttrf_2_3_1;;8;3;29,76;60;400;20;0,727407;6,908129;0;0;D;D;0;0;0;100;1;0;5;0;0;-2;2;

$$IntQlim;ID(a:40);loc_name(a:40);for_name(a:50);fold_id(p);cap_P:SIZEROW(i);cap_P:0(r);cap_P:1(r);cap_P:2(r);cap_P:3(r);cap_P:4(r);cap_P:5(r);cap_P:6(r);cap_Qmn:SIZEROW(i);cap_Qmn:0(r);cap_Qmn:1(r);cap_Qmn:2(r);cap_Qmn:3(r);cap_Qmn:4(r);cap_Qmn:5(r);cap_Qmn:6(r);cap_Qmx:SIZEROW(i);cap_Qmx:0(r);cap_Qmx:1(r);cap_Qmx:2(r);cap_Qmx:3(r);cap_Qmx:4(r);cap_Qmx:5(r);cap_Qmx:6(r)
  31;Capability_Curve_450_MVA;;9;7;0,0;81,0;162,0;243,0;324,0;405,0;450,0;7;-250,0;-220,0;-190,0;-160,0;-130,0;-100,0;-80,0;7;353,2732;347,7854;331,0096;301,9124;258,371;196,1505;0,0
  